                                   MODFLOW 6
                U.S. GEOLOGICAL SURVEY MODULAR HYDROLOGIC MODEL
                          GROUNDWATER FLOW MODEL (GWF)
                            VERSION 6.0.3 08/09/2018

   MODFLOW 6 compiled Aug 09 2018 13:40:32 with IFORT compiler (ver. 18.0.3)

This software has been approved for release by the U.S. Geological 
Survey (USGS). Although the software has been subjected to rigorous 
review, the USGS reserves the right to update the software as needed 
pursuant to further analysis and review. No warranty, expressed or 
implied, is made by the USGS or the U.S. Government as to the 
functionality of the software and related material nor shall the 
fact of release constitute any such warranty. Furthermore, the 
software is released on condition that neither the USGS nor the U.S. 
Government shall be held liable for any damages resulting from its 
authorized or unauthorized use. Also refer to the USGS Water 
Resources Software User Rights Notice for complete use, copyright, 
and distribution information.


MODFLOW was compiled using uniform precision.
Precision of REAL variables: 15


 OPENED mf.disv
 FILE TYPE:DISV6                  UNIT 1005   STATUS:OLD                 
 FORMAT:FORMATTED              ACCESS:SEQUENTIAL          
 ACTION:READ                


 OPENED mf.npf
 FILE TYPE:NPF6                   UNIT 1006   STATUS:OLD                 
 FORMAT:FORMATTED              ACCESS:SEQUENTIAL          
 ACTION:READ                


 OPENED mf.ic
 FILE TYPE:IC6                    UNIT 1007   STATUS:OLD                 
 FORMAT:FORMATTED              ACCESS:SEQUENTIAL          
 ACTION:READ                


 OPENED mf.chd
 FILE TYPE:CHD6                   UNIT 1008   STATUS:OLD                 
 FORMAT:FORMATTED              ACCESS:SEQUENTIAL          
 ACTION:READ                


 OPENED mf.drn
 FILE TYPE:DRN6                   UNIT 1009   STATUS:OLD                 
 FORMAT:FORMATTED              ACCESS:SEQUENTIAL          
 ACTION:READ                


 OPENED mf.oc
 FILE TYPE:OC6                    UNIT 1010   STATUS:OLD                 
 FORMAT:FORMATTED              ACCESS:SEQUENTIAL          
 ACTION:READ                

 NAMEFILE OPTIONS:
    FLOWS WILL BE SAVED TO BUDGET FILE SPECIFIED IN OUTPUT CONTROL

 DISV -- VERTEX GRID DISCRETIZATION PACKAGE, VERSION 1 : 12/23/2015 - INPUT READ FROM UNIT 1005



 PROCESSING DISCRETIZATION OPTIONS
    MODEL LENGTH UNIT IS METERS
 END OF DISCRETIZATION OPTIONS

 PROCESSING DISCRETIZATION DIMENSIONS
   NLAY = 1
   NCPL = 363
   NVERT = 208
 END OF DISCRETIZATION DIMENSIONS

 PROCESSING GRIDDATA

 TOP ELEVATION OF LAYER 1 =   1.000000    

   MODEL LAYER BOTTOM EL. =   0.000000    
 END PROCESSING GRIDDATA

 PROCESSING VERTICES
   SUCCESSFULLY READ 208 (X,Y) COORDINATES
   MINIMUM X COORDINATE =     0.00000000000000    
   MAXIMUM X COORDINATE =     100.000000000000    
   MINIMUM Y COORDINATE =     0.00000000000000    
   MAXIMUM Y COORDINATE =     65.0000000000000    
 END PROCESSING VERTICES

 PROCESSING CELL2D
   SUCCESSFULLY READ 363 CELL2D INFORMATION ENTRIES
   MINIMUM X CELL CENTER =     1.16804445000000    
   MAXIMUM X CELL CENTER =     99.1678690700000    
   MINIMUM Y CELL CENTER =     2.91666667000000    
   MAXIMUM Y CELL CENTER =     62.8398171700000    
   MAXIMUM NUMBER OF CELL2D VERTICES IS 3 FOR CELL 1
 END PROCESSING VERTICES

 NPF -- NODE PROPERTY FLOW PACKAGE, VERSION 1, 3/30/2015 INPUT READ FROM UNIT 1006


 PROCESSING NPF OPTIONS
 END OF NPF OPTIONS

 DRN   -- DRN PACKAGE, VERSION 8, 2/22/2014 INPUT READ FROM UNIT 1009

 PROCESSING DRN OPTIONS
 END OF DRN OPTIONS

 PROCESSING DRN DIMENSIONS
    MAXBOUND =      32
 END OF DRN DIMENSIONS

 CHD   -- CHD PACKAGE, VERSION 8, 2/22/2014 INPUT READ FROM UNIT 1008

 PROCESSING CHD OPTIONS
 END OF CHD OPTIONS

 PROCESSING CHD DIMENSIONS
    MAXBOUND =      19
 END OF CHD DIMENSIONS

 IC -- INITIAL CONDITIONS PACKAGE, VERSION 8, 3/28/2015 INPUT READ FROM UNIT 1007
 PROCESSING GRIDDATA

     INITIAL HEAD =   10.00000    
 END PROCESSING GRIDDATA
 PROCESSING GRIDDATA

                ICELLTYPE = 0

                        K =  0.1000000E-03
 K33 not provided.  Assuming K33 = K.
 K22 not provided.  Assuming K22 = K.
 END PROCESSING GRIDDATA
    BINARY GRID INFORMATION WILL BE WRITTEN TO:
      UNIT NUMBER: 1012
      FILE NAME: D:\GitHub Repositories\triangular_grid_for_MODFLOW6\Model\mf.disv.grb

 OPENED D:\GitHub Repositories\triangular_grid_for_MODFLOW6\Model\mf.disv.grb
 FILE TYPE:DATA(BINARY)   UNIT 1012   STATUS:REPLACE             
 FORMAT:UNFORMATTED            ACCESS:STREAM              
 ACTION:READWRITE           

      THE LAST TIME STEP WILL BE PRINTED
      THE LAST TIME STEP WILL BE PRINTED
 PROCESSING OC OPTIONS
    BUDGET INFORMATION WILL BE WRITTEN TO:
      UNIT NUMBER: 1013
      FILE NAME: mf.cbc

 OPENED mf.cbc
 FILE TYPE:DATA(BINARY)   UNIT 1013   STATUS:REPLACE             
 FORMAT:UNFORMATTED            ACCESS:STREAM              
 ACTION:READWRITE           

    HEAD INFORMATION WILL BE WRITTEN TO:
      UNIT NUMBER: 1014
      FILE NAME: mf.hds

 OPENED mf.hds
 FILE TYPE:DATA(BINARY)   UNIT 1014   STATUS:REPLACE             
 FORMAT:UNFORMATTED            ACCESS:STREAM              
 ACTION:READWRITE           

 END OF OC OPTIONS

 BEGIN READING OUTPUT CONTROL FOR STRESS PERIOD 1
      THE LAST TIME STEP WILL BE SAVED
      THE LAST TIME STEP WILL BE SAVED
      THE LAST TIME STEP WILL BE PRINTED
      THE LAST TIME STEP WILL BE PRINTED

 END READING OUTPUT CONTROL FOR STRESS PERIOD 1
 UBDSV1 SAVING     FLOW-JA-FACE ON UNIT   1013 AT TIME STEP      1, STRESS PERIOD      1
 UBDSV06 SAVING              DRN IN MODEL MF               PACKAGE MF              CONNECTED TO MODEL MF               PACKAGE DRN_0            ON UNIT   1013 AT TIME STEP      1, STRESS PERIOD      1
 UBDSV06 SAVING              CHD IN MODEL MF               PACKAGE MF              CONNECTED TO MODEL MF               PACKAGE CHD_0            ON UNIT   1013 AT TIME STEP      1, STRESS PERIOD      1
1
  HEAD IN LAYER   1 AT END OF TIME STEP   1 IN STRESS PERIOD    1
  ---------------------------------------------------------------------------

            1           2           3           4           5           6           7           8           9          10
           11          12          13          14          15          16          17          18          19          20
           21          22          23          24          25          26          27          28          29          30
           31          32          33          34          35          36          37          38          39          40
           41          42          43          44          45          46          47          48          49          50
           51          52          53          54          55          56          57          58          59          60
           61          62          63          64          65          66          67          68          69          70
           71          72          73          74          75          76          77          78          79          80
           81          82          83          84          85          86          87          88          89          90
           91          92          93          94          95          96          97          98          99         100
          101         102         103         104         105         106         107         108         109         110
          111         112         113         114         115         116         117         118         119         120
          121         122         123         124         125         126         127         128         129         130
          131         132         133         134         135         136         137         138         139         140
          141         142         143         144         145         146         147         148         149         150
          151         152         153         154         155         156         157         158         159         160
          161         162         163         164         165         166         167         168         169         170
          171         172         173         174         175         176         177         178         179         180
          181         182         183         184         185         186         187         188         189         190
          191         192         193         194         195         196         197         198         199         200
          201         202         203         204         205         206         207         208         209         210
          211         212         213         214         215         216         217         218         219         220
          221         222         223         224         225         226         227         228         229         230
          231         232         233         234         235         236         237         238         239         240
          241         242         243         244         245         246         247         248         249         250
          251         252         253         254         255         256         257         258         259         260
          261         262         263         264         265         266         267         268         269         270
          271         272         273         274         275         276         277         278         279         280
          281         282         283         284         285         286         287         288         289         290
          291         292         293         294         295         296         297         298         299         300
          301         302         303         304         305         306         307         308         309         310
          311         312         313         314         315         316         317         318         319         320
          321         322         323         324         325         326         327         328         329         330
          331         332         333         334         335         336         337         338         339         340
          341         342         343         344         345         346         347         348         349         350
          351         352         353         354         355         356         357         358         359         360
          361         362         363
 ........................................................................................................................
   1    11.31       7.743       19.47       16.72       7.502       9.284       9.321       7.658       11.17       9.146    
        11.43       7.500       9.126       8.654       8.071       10.00       7.778       7.500       7.667       7.501    
        7.500       7.502       12.62       7.501       7.500       9.022       7.500       7.501       7.500       7.503    
        7.500       7.500       7.660       9.572       7.501       8.366       7.688       9.072       9.231       8.252    
        8.344       8.884       9.330       7.503       7.502       7.501       7.500       9.729       9.013       7.629    
        7.501       8.152       7.659       7.501       9.449       9.708       9.083       10.27       10.90       10.00    
        7.500       7.502       7.500       8.840       7.500       7.714       7.501       8.409       7.688       8.231    
        9.281       8.415       8.849       9.532       8.802       10.00       8.637       10.00       8.747       8.863    
        9.404       9.735       9.519       10.00       9.478       9.061       8.226       7.500       9.377       10.00    
        7.500       9.822       7.500       7.500       7.691       8.345       8.835       8.017       7.636       7.500    
        7.500       11.75       9.799       10.02       10.00       9.515       9.238       11.01       14.63       13.21    
        10.19       10.02       10.07       10.90       11.18       12.49       11.93       11.85       10.29       10.75    
        11.96       12.36       10.00       9.513       9.929       10.34       10.35       9.856       10.17       13.41    
        13.60       10.55       10.95       10.07       10.06       9.954       10.23       11.95       11.29       10.10    
        11.83       15.27       14.23       17.22       12.97       16.03       15.17       14.13       12.87       14.54    
        13.75       12.99       16.64       26.73       13.65       15.59       18.14       16.07       17.14       16.04    
        14.76       17.91       16.90       16.44       17.96       16.34       13.65       9.808       10.00       11.74    
        10.46       12.29       10.81       11.13       12.59       14.22       11.61       13.03       15.18       14.14    
        14.95       15.34       17.37       13.01       26.16       15.51       12.64       14.64       15.62       15.02    
        16.05       16.15       19.75       17.89       17.32       16.30       14.86       14.74       13.56       13.91    
        18.13       16.85       19.30       21.15       17.88       18.75       19.71       18.63       29.57       19.78    
        19.20       22.10       25.27       20.39       25.08       21.23       23.43       22.04       22.02       19.22    
        15.81       14.93       19.58       18.27       20.57       20.98       20.64       20.70       19.82       18.21    
        19.12       21.92       17.70       21.31       22.60       22.71       24.19       23.36       25.16       22.62    
        24.15       23.99       26.28       23.62       28.63       25.72       25.77       23.73       25.73       27.27    
        28.02       26.72       28.09       26.49       27.42       25.22       29.51       30.00       27.23       23.93    
        26.49       25.50       28.57       28.26       27.86       26.94       30.00       28.83       30.00       25.02    
        22.61       24.62       29.54       22.63       24.34       29.52       28.68       28.67       30.00       26.21    
        28.08       30.00       22.93       23.10       22.29       24.07       21.35       18.57       20.67       17.96    
        22.62       20.96       19.01       19.93       23.63       22.95       19.49       21.33       18.37       19.85    
        21.64       20.64       17.56       17.57       20.78       18.95       21.66       19.74       19.13       22.42    
        23.88       23.94       24.26       28.45       22.36       25.90       30.00       25.12       27.08       27.95    
        24.49       25.33       24.21       23.52       20.63       21.66       29.69       26.87       22.44       25.53    
        26.67       29.62       27.60       26.54       25.72       25.51       25.04       26.34       30.00       29.73    
        30.00       30.00       28.72       29.07       29.14       30.00       29.06       28.29       28.29       28.94    
        29.53       27.66       27.80       28.93       26.67       27.97       27.19       26.72       27.25       28.83    
        29.75       29.62       29.47    

 HEAD WILL BE SAVED ON UNIT 1014 AT END OF TIME STEP    1, STRESS PERIOD    1


  VOLUME BUDGET FOR ENTIRE MODEL AT END OF TIME STEP    1, STRESS PERIOD   1
  ---------------------------------------------------------------------------------------------------

     CUMULATIVE VOLUME      L**3       RATES FOR THIS TIME STEP      L**3/T          PACKAGE NAME    
     ------------------                 ------------------------                     ----------------

           IN:                                      IN:
           ---                                      ---
                 DRN =           0.0000                   DRN =           0.0000     DRN_0           
                 CHD =       2.2796E-03                   CHD =       2.2796E-03     CHD_0           

            TOTAL IN =       2.2796E-03              TOTAL IN =       2.2796E-03

          OUT:                                     OUT:
          ----                                     ----
                 DRN =       2.2600E-03                   DRN =       2.2600E-03     DRN_0           
                 CHD =       1.9568E-05                   CHD =       1.9568E-05     CHD_0           

           TOTAL OUT =       2.2796E-03             TOTAL OUT =       2.2796E-03

            IN - OUT =      -2.2263E-10              IN - OUT =      -2.2263E-10

 PERCENT DISCREPANCY =          -0.00     PERCENT DISCREPANCY =          -0.00




         TIME SUMMARY AT END OF TIME STEP    1 IN STRESS PERIOD    1
                    SECONDS     MINUTES      HOURS       DAYS        YEARS
                    -----------------------------------------------------------
   TIME STEP LENGTH  1.0000     1.66667E-02 2.77778E-04 1.15741E-05 3.16881E-08
 STRESS PERIOD TIME  1.0000     1.66667E-02 2.77778E-04 1.15741E-05 3.16881E-08
         TOTAL TIME  1.0000     1.66667E-02 2.77778E-04 1.15741E-05 3.16881E-08
